<?xml version="1.0" encoding="UTF-8"?>

<!-- generated on 2023-04-17 19:25:43 by Eclipse SUMO GUI Version 1.16.0
<configuration xmlns:xsi="http://www.w3.org/2001/XMLSchema-instance" xsi:noNamespaceSchemaLocation="http://sumo.dlr.de/xsd/sumoConfiguration.xsd">

    <input>
        <net-file value="data/simulationConfigurations/scene0/cross.net.xml"/>
        <route-files value="data/simulationConfigurations/scene0/cross.rou.xml"/>
        <additional-files value="data/simulationConfigurations/scene0/cross.det.xml"/>
    </input>

    <time>
        <begin value="0"/>
    </time>

    <report>
        <verbose value="true"/>
        <no-step-log value="true"/>
    </report>

    <traci_server>
        <remote-port value="53478"/>
    </traci_server>

</configuration>
